Version 4
SHEET 1 1724 680
WIRE 224 160 128 160
WIRE -208 176 -208 144
WIRE -208 192 -208 176
WIRE 160 272 160 224
WIRE 64 288 -208 288
WIRE 224 288 224 160
WIRE 224 288 208 288
WIRE 352 320 208 320
WIRE 448 320 352 320
WIRE 64 352 -80 352
WIRE 288 352 208 352
WIRE 448 352 288 352
WIRE 288 384 288 352
WIRE 352 384 352 320
WIRE -208 448 -208 288
WIRE -80 448 -80 352
WIRE 160 464 160 368
WIRE 208 464 160 464
WIRE 288 464 288 448
WIRE 288 464 208 464
WIRE 352 464 352 448
WIRE 352 464 288 464
WIRE 288 480 288 464
FLAG 160 224 vdd
FLAG -208 192 0
FLAG -208 64 vdd
FLAG -208 288 a
FLAG -80 352 b
FLAG 128 160 0
FLAG 448 320 o1
FLAG 448 352 cout
FLAG -80 528 0
FLAG -208 528 0
FLAG -208 176 vss
FLAG 288 480 0
FLAG 208 464 vss
SYMBOL /voltage -208 48 R0
SYMATTR InstName V1
SYMATTR Value 1.8
SYMBOL add1b 144 320 R0
SYMATTR InstName X1
SYMATTR SpiceLine wn={nnw} wp={nnw*mp} ll={ll}
SYMBOL /voltage -208 432 R0
SYMATTR InstName V2
SYMATTR Value {vv}
SYMBOL /voltage -80 432 R0
WINDOW 123 0 0 Left 0
WINDOW 39 0 0 Left 0
SYMATTR InstName V3
SYMATTR Value PULSE(0 {vv} 10p 1p 1p 2n 4n 3)
SYMBOL cap 272 384 R0
SYMATTR InstName C1
SYMATTR Value 1f
SYMBOL cap 336 384 R0
SYMATTR InstName C2
SYMATTR Value 1f
TEXT -224 -112 Left 2 !.param vv=1.8 nnw=180n mp=2.5 ll=180n\n.lib BU_180nm.lib\n.op\n.tran 4200p
TEXT 264 -72 Left 2 !.param voh=vv*0.9 vol=vv*0.1\n.meas tran t1 find time when v(out)={vol} rise 1\n.meas tran t2 find time when v(out)={voh} rise 1\n.meas tran t3 find time when v(out)={vol} fall 1\n.meas tran t4 find time when v(out)={voh} fall 1\n.meas tran uptime param abs(t2-t1)\n.meas tran downtime param abs(t4-t3)\n.meas tran upslope param abs({voh}-{vol})/abs(t2-t1)\n.meas tran downslope param abs({voh}-{vol})/abs(t4-t3)\n.meas tran ratio param upslope/downslope
