Version 4
SHEET 1 3040 1476
WIRE 1040 288 736 288
WIRE 976 336 848 336
WIRE 976 368 976 336
WIRE 880 384 736 384
WIRE 1040 384 1040 288
WIRE 1040 384 1024 384
WIRE 1104 416 1024 416
WIRE 880 448 736 448
WIRE 1040 448 1024 448
WIRE 976 480 976 464
WIRE 976 480 848 480
WIRE 976 496 864 496
WIRE 864 512 864 496
WIRE 864 512 848 512
WIRE 976 528 976 496
WIRE 880 544 736 544
WIRE 1040 544 1040 448
WIRE 1040 544 1024 544
WIRE 1104 576 1024 576
WIRE 880 608 736 608
WIRE 1040 608 1024 608
WIRE 976 640 976 624
WIRE 976 640 848 640
WIRE 976 656 864 656
WIRE 864 672 864 656
WIRE 864 672 848 672
WIRE 976 688 976 656
WIRE 880 704 736 704
WIRE 1040 704 1040 608
WIRE 1040 704 1024 704
WIRE 1104 736 1024 736
WIRE 880 768 736 768
WIRE 1104 768 1024 768
WIRE 976 800 976 784
WIRE 976 800 848 800
FLAG 1104 768 cout
FLAG 1104 416 o1
FLAG 1104 576 o2
FLAG 1104 736 o3
FLAG 736 384 a1
FLAG 736 448 b1
FLAG 736 544 a2
FLAG 736 608 b2
FLAG 736 704 a3
FLAG 736 768 b3
FLAG 736 288 cin
FLAG 848 800 vss
FLAG 848 640 vss
FLAG 848 480 vss
FLAG 848 336 vdd
FLAG 848 512 vdd
FLAG 848 672 vdd
SYMBOL add1b 960 416 R0
SYMATTR InstName X1
SYMATTR SpiceLine ll={ll} wn={nnw} wp={nnw*mp}
SYMBOL add1b 960 576 R0
SYMATTR InstName X2
SYMATTR SpiceLine ll={ll} wn={nnw} wp={nnw*mp}
SYMBOL add1b 960 736 R0
SYMATTR InstName X3
SYMATTR SpiceLine ll={ll} wn={nnw} wp={nnw*mp}
