Version 4
SHEET 1 880 1032
WIRE -1040 176 -1296 176
WIRE -1120 208 -1200 208
WIRE -1120 224 -1120 208
WIRE -1168 240 -1296 240
WIRE -1168 272 -1296 272
WIRE -1168 304 -1296 304
WIRE -992 304 -1072 304
WIRE -1008 336 -1072 336
WIRE -912 352 -928 352
WIRE -1168 368 -1296 368
WIRE -1024 368 -1072 368
WIRE -928 368 -928 352
WIRE -736 368 -768 368
WIRE -992 384 -992 304
WIRE -976 384 -992 384
WIRE -752 384 -864 384
WIRE -448 384 -704 384
WIRE -432 384 -448 384
WIRE -1168 400 -1296 400
WIRE -736 400 -768 400
WIRE -1008 416 -1008 336
WIRE -976 416 -1008 416
WIRE -688 416 -736 416
WIRE -1168 432 -1296 432
WIRE -752 432 -848 432
WIRE -528 432 -704 432
WIRE -432 432 -528 432
WIRE -1184 448 -1200 448
WIRE -1024 448 -1024 368
WIRE -976 448 -1024 448
WIRE -864 448 -864 384
WIRE -864 448 -880 448
WIRE -688 448 -736 448
WIRE -1184 464 -1184 448
WIRE -1120 464 -1120 448
WIRE -1120 464 -1184 464
WIRE -736 464 -768 464
WIRE -1120 480 -1200 480
WIRE -1040 480 -1040 176
WIRE -976 480 -1040 480
WIRE -848 480 -848 432
WIRE -848 480 -880 480
WIRE -752 480 -832 480
WIRE -608 480 -704 480
WIRE -432 480 -608 480
WIRE -1152 496 -1296 496
WIRE -736 496 -768 496
WIRE -1152 512 -1152 496
WIRE -1120 512 -1120 480
WIRE -976 512 -1024 512
WIRE -832 512 -832 480
WIRE -832 512 -880 512
WIRE -688 512 -736 512
WIRE -1168 528 -1296 528
WIRE -752 528 -816 528
WIRE -688 528 -704 528
WIRE -432 528 -688 528
WIRE -976 544 -1008 544
WIRE -720 544 -736 544
WIRE -1168 560 -1296 560
WIRE -976 576 -992 576
WIRE -1168 592 -1296 592
WIRE -1024 592 -1024 512
WIRE -1024 592 -1072 592
WIRE -688 592 -688 528
WIRE -608 592 -608 480
WIRE -528 592 -528 432
WIRE -448 592 -448 384
WIRE -928 608 -928 592
WIRE -912 608 -928 608
WIRE -1008 624 -1008 544
WIRE -1008 624 -1072 624
WIRE -1168 656 -1296 656
WIRE -992 656 -992 576
WIRE -992 656 -1072 656
WIRE -1168 688 -1296 688
WIRE -896 688 -976 688
WIRE -880 688 -896 688
WIRE -688 688 -688 656
WIRE -608 688 -608 656
WIRE -608 688 -688 688
WIRE -528 688 -528 656
WIRE -528 688 -608 688
WIRE -448 688 -448 656
WIRE -448 688 -528 688
WIRE -976 704 -976 688
WIRE -688 704 -688 688
WIRE -1168 720 -1296 720
WIRE -1040 720 -1040 480
WIRE -1008 720 -1040 720
WIRE -896 720 -896 688
WIRE -912 736 -944 736
WIRE -816 736 -816 528
WIRE -816 736 -864 736
WIRE -1120 752 -1120 736
WIRE -1120 752 -1200 752
WIRE -1088 752 -1088 736
WIRE -1008 752 -1088 752
WIRE -976 784 -976 768
WIRE -896 784 -896 752
WIRE -896 784 -976 784
WIRE -880 784 -896 784
FLAG -432 384 o1
FLAG -432 432 o2
FLAG -432 480 o3
FLAG -432 528 cout
FLAG -1296 304 a3
FLAG -1296 720 b3
FLAG -1296 272 a2
FLAG -1296 688 b2
FLAG -1296 240 a1
FLAG -1296 656 b1
FLAG -1296 176 sel
FLAG -1296 496 cin
FLAG -912 352 vdd
FLAG -688 704 0
FLAG -1200 752 vss
FLAG -1200 448 vss
FLAG -912 608 vss
FLAG -1200 208 vdd
FLAG -1200 480 vdd
FLAG -880 784 vss
FLAG -880 688 vdd
FLAG -768 368 vdd
FLAG -688 416 vdd
FLAG -768 400 vss
FLAG -688 448 vss
FLAG -768 496 vss
FLAG -768 464 vdd
FLAG -688 512 vdd
FLAG -720 544 vss
FLAG -1296 592 a3
FLAG -1296 560 a2
FLAG -1296 528 a1
FLAG -1296 432 b3
FLAG -1296 400 b2
FLAG -1296 368 b1
SYMBOL add3b -1120 624 R0
SYMATTR InstName X1
SYMATTR SpiceLine wn={nnw} wp={nnw*mp} ll={ll} nnw={nnw} mp={mp}
SYMBOL and3b -1120 336 R0
SYMATTR InstName X2
SYMATTR SpiceLine wn={nnw} wp={nnw*mp} ll={ll} nnw={nnw} mp={mp}
SYMBOL mux2x3b -928 480 R0
SYMATTR InstName X3
SYMATTR SpiceLine wn={nnw} wp={nnw*mp} ll={ll} nnw={nnw} mp={mp}
SYMBOL pad_buffer -736 384 R0
SYMATTR InstName X6
SYMATTR SpiceLine wn={nnw} wp={nnw*mp} ll={ll} nnw={nnw} mp={mp}
SYMBOL pad_buffer -736 528 R0
SYMATTR InstName X9
SYMATTR SpiceLine wn={nnw} wp={nnw*mp} ll={ll} nnw={nnw} mp={mp}
SYMBOL pad_buffer -736 432 R0
SYMATTR InstName X4
SYMATTR SpiceLine wn={nnw} wp={nnw*mp} ll={ll} nnw={nnw} mp={mp}
SYMBOL pad_buffer -736 480 R0
SYMATTR InstName X5
SYMATTR SpiceLine wn={nnw} wp={nnw*mp} ll={ll} nnw={nnw} mp={mp}
SYMBOL /cap -704 592 R0
SYMATTR InstName C5
SYMATTR Value 1.5p
SYMBOL /cap -624 592 R0
SYMATTR InstName C6
SYMATTR Value 1.5p
SYMBOL /cap -544 592 R0
SYMATTR InstName C7
SYMATTR Value 1.5p
SYMBOL nand -976 736 R0
SYMATTR InstName X10
SYMATTR SpiceLine wn={nnw} wp={nnw*mp} ll={ll} nnw={nnw} mp={mp}
SYMBOL inv -896 736 R0
SYMATTR InstName X11
SYMATTR SpiceLine wn={nnw} wp={nnw*mp} ll={ll} nnw={nnw} mp={mp}
SYMBOL /cap -464 592 R0
SYMATTR InstName C8
SYMATTR Value 1.5p
TEXT -976 832 Left 2 ;Retournes seulement cout en ADDER
