Version 4
SHEET 1 880 1060
WIRE -528 -96 -624 -96
WIRE -560 -80 -784 -80
WIRE -624 -64 -624 -96
WIRE -624 -64 -656 -64
WIRE -416 -64 -496 -64
WIRE -368 -64 -384 -64
WIRE -752 -48 -784 -48
WIRE -640 -48 -752 -48
WIRE -560 -48 -592 -48
WIRE -384 -48 -384 -64
WIRE -624 -32 -656 -32
WIRE -528 -32 -624 -32
WIRE -416 -32 -416 -64
WIRE -272 -16 -352 -16
WIRE -528 16 -560 16
WIRE -560 32 -784 32
WIRE -384 32 -384 16
WIRE -368 32 -384 32
WIRE -416 48 -416 0
WIRE -416 48 -496 48
WIRE -752 64 -752 -48
WIRE -560 64 -752 64
WIRE -528 80 -560 80
FLAG -272 -16 o
FLAG -784 -48 sel
FLAG -784 32 b
FLAG -784 -80 a
FLAG -560 80 vss
FLAG -656 -64 vdd
FLAG -656 -32 vss
FLAG -560 16 vdd
FLAG -368 -64 vdd
FLAG -368 32 vss
SYMBOL inv -624 -48 R0
SYMATTR InstName X1
SYMATTR SpiceLine wn={nnw} wp={nnw*mp} ll={ll} nnw={nnw} mp={mp}
SYMBOL nand -528 -64 R0
SYMATTR InstName X2
SYMATTR SpiceLine wn={nnw} wp={nnw*mp} ll={ll} nnw={nnw} mp={mp}
SYMBOL nand -528 48 R0
SYMATTR InstName X3
SYMATTR SpiceLine wn={nnw} wp={nnw*mp} ll={ll} nnw={nnw} mp={mp}
SYMBOL nand -384 -16 R0
SYMATTR InstName X4
SYMATTR SpiceLine wn={nnw} wp={nnw*mp} ll={ll} nnw={nnw} mp={mp}
