Version 4
SHEET 1 2148 1032
WIRE 976 304 960 304
WIRE 880 336 784 336
WIRE 880 368 880 336
WIRE 816 384 688 384
WIRE 976 384 976 304
WIRE 976 384 928 384
WIRE 816 416 688 416
WIRE 1024 416 928 416
WIRE 800 432 784 432
WIRE 800 448 800 432
WIRE 880 448 880 432
WIRE 880 448 800 448
WIRE 880 464 784 464
WIRE 880 496 880 464
WIRE 816 512 688 512
WIRE 976 512 976 384
WIRE 976 512 928 512
WIRE 816 544 688 544
WIRE 1024 544 928 544
WIRE 800 560 784 560
WIRE 800 576 800 560
WIRE 880 576 880 560
WIRE 880 576 800 576
WIRE 880 592 784 592
WIRE 880 624 880 592
WIRE 816 640 688 640
WIRE 976 640 976 512
WIRE 976 640 928 640
WIRE 816 672 688 672
WIRE 1024 672 928 672
WIRE 880 704 880 688
WIRE 880 704 784 704
FLAG 688 384 a1
FLAG 688 416 b1
FLAG 688 512 a2
FLAG 688 544 b2
FLAG 688 640 a3
FLAG 688 672 b3
FLAG 960 304 sel
FLAG 784 704 vss
FLAG 784 336 vdd
FLAG 1024 416 o1
FLAG 1024 544 o2
FLAG 1024 672 o3
FLAG 784 464 vdd
FLAG 784 592 vdd
FLAG 784 560 vss
FLAG 784 432 vss
SYMBOL mux2x1b 864 400 R0
SYMATTR InstName X4
SYMATTR SpiceLine wn={nnw} wp={nnw*mp} ll={ll} nnw={nnw} mp={mp}
SYMBOL mux2x1b 864 528 R0
SYMATTR InstName X5
SYMATTR SpiceLine wn={nnw} wp={nnw*mp} ll={ll} nnw={nnw} mp={mp}
SYMBOL mux2x1b 864 656 R0
SYMATTR InstName X6
SYMATTR SpiceLine wn={nnw} wp={nnw*mp} ll={ll} nnw={nnw} mp={mp}
