Version 4
SHEET 1 1192 856
WIRE -480 160 -480 112
WIRE -480 160 -528 160
WIRE -256 160 -256 112
WIRE -256 160 -304 160
WIRE 448 176 448 160
WIRE -304 208 -304 192
WIRE 448 240 448 176
WIRE -528 256 -528 208
WIRE -416 256 -528 256
WIRE -304 256 -304 208
WIRE -304 256 -416 256
WIRE -416 368 -416 256
WIRE -304 368 -416 368
WIRE 224 368 48 368
WIRE 448 368 448 320
WIRE 448 368 304 368
WIRE 512 368 448 368
WIRE 672 368 592 368
WIRE -416 448 -416 368
WIRE -416 448 -432 448
WIRE -336 496 -432 496
WIRE 224 496 48 496
WIRE 448 496 448 368
WIRE 448 496 304 496
WIRE -480 528 -496 528
WIRE -336 560 -336 496
WIRE 448 560 448 496
WIRE -432 592 -432 544
WIRE -336 640 -432 640
WIRE -480 672 -496 672
WIRE -432 704 -432 688
WIRE -336 704 -336 640
WIRE 448 704 448 640
FLAG 448 176 vdd
FLAG -432 704 vss
FLAG -304 368 Q
FLAG -352 192 in2
FLAG -528 112 vdd
FLAG -336 704 vss
FLAG -336 560 vss
FLAG -496 528 in1
FLAG -496 672 in2
FLAG -576 192 in1
FLAG -480 112 vdd
FLAG -304 112 vdd
FLAG -256 112 vdd
SYMBOL /res 432 224 R0
SYMATTR InstName R2
SYMATTR Value 1
SYMBOL pmos018 -576 112 R0
SYMATTR InstName M1
SYMATTR Value2 l={ll} w={wp} ad={450n*{wp}} as={450n*{wp}} pd={900n+{wp}} ps={1080n+{wp}}
SYMBOL nmos018 -480 448 R0
SYMATTR InstName M2
SYMATTR Value2 l={ll} w={wn*2} ad={450n*{wn}} as={450n*{wn}} pd={900n+{wn}} ps={1080n+{wn}}
SYMBOL pmos018 -352 112 R0
SYMATTR InstName M3
SYMATTR Value2 l={ll} w={wp} ad={450n*{wp}} as={450n*{wp}} pd={900n+{wp}} ps={1080n+{wp}}
SYMBOL nmos018 -480 592 R0
SYMATTR InstName M4
SYMATTR Value2 l={ll} w={wn*2} ad={450n*{wn}} as={450n*{wn}} pd={900n+{wn}} ps={1080n+{wn}}
TEXT 120 168 Left 2 !.lib BU_180nm.lib
TEXT 544 168 Left 2 ;Parametres requis: \nll=longueur \nwn=largeur_nmos \nwp=largeur_pmos
