Version 4
SHEET 1 1192 956
WIRE -96 112 -96 80
WIRE -48 160 -48 80
WIRE -48 160 -96 160
WIRE -96 240 -96 208
WIRE -48 288 -48 240
WIRE -48 288 -96 288
WIRE -96 368 -96 336
WIRE 0 368 -96 368
WIRE 160 368 0 368
WIRE -96 432 -96 368
WIRE -48 480 -96 480
WIRE -144 512 -176 512
WIRE -48 528 -48 480
WIRE 0 624 0 368
WIRE 96 672 0 672
WIRE 96 720 96 672
FLAG 160 368 Q
FLAG -144 192 in1
FLAG -144 320 in2
FLAG -96 80 vdd
FLAG -96 528 vss
FLAG -176 512 in1
FLAG -48 704 in2
FLAG -48 80 vdd
FLAG -48 240 vdd
FLAG -48 528 vss
FLAG 0 720 vss
FLAG 96 720 vss
SYMBOL nmos018 -48 624 R0
SYMATTR InstName M5
SYMATTR Value2 l={ll} w={wn} ad={450n*{wn}} as={450n*{wn}} pd={900n+{wn}} ps={1080n+{wn}}
SYMBOL pmos018 -144 240 R0
SYMATTR InstName M6
SYMATTR Value2 l={ll} w={wp*2} ad={450n*{wp}} as={450n*{wp}} pd={900n+{wp}} ps={1080n+{wp}}
SYMBOL nmos018 -144 432 R0
SYMATTR InstName M1
SYMATTR Value2 l={ll} w={wn} ad={450n*{wn}} as={450n*{wn}} pd={900n+{wn}} ps={1080n+{wn}}
SYMBOL pmos018 -144 112 R0
SYMATTR InstName M2
SYMATTR Value2 l={ll} w={wp*2} ad={450n*{wp}} as={450n*{wp}} pd={900n+{wp}} ps={1080n+{wp}}
TEXT 576 192 Left 2 ;Parametres requis: \nll=longueur \nwn=largeur_nmos \nwp=largeur_pmos
TEXT 576 336 Left 2 !.lib BU_180nm.lib
