Version 4
SHEET 1 1192 804
WIRE -1344 -1120 -1344 -1136
WIRE -768 -1120 -768 -1136
WIRE -1264 -1072 -1264 -1136
WIRE -1264 -1072 -1344 -1072
WIRE -1072 -1072 -1072 -1088
WIRE -688 -1072 -688 -1136
WIRE -688 -1072 -768 -1072
WIRE -496 -1072 -496 -1088
WIRE -1392 -1040 -1440 -1040
WIRE -816 -1040 -864 -1040
WIRE -976 -1024 -976 -1088
WIRE -976 -1024 -1072 -1024
WIRE -416 -1024 -416 -1088
WIRE -416 -1024 -496 -1024
WIRE -1440 -992 -1440 -1040
WIRE -1344 -992 -1344 -1024
WIRE -1120 -992 -1344 -992
WIRE -864 -992 -864 -1040
WIRE -768 -992 -768 -1024
WIRE -544 -992 -768 -992
WIRE -1344 -976 -1344 -992
WIRE -768 -976 -768 -992
WIRE -1264 -928 -1344 -928
WIRE -688 -928 -768 -928
WIRE -1440 -896 -1440 -992
WIRE -1392 -896 -1440 -896
WIRE -1072 -896 -1072 -976
WIRE -864 -896 -864 -992
WIRE -816 -896 -864 -896
WIRE -496 -896 -496 -976
WIRE -1344 -864 -1344 -880
WIRE -1264 -864 -1264 -928
WIRE -768 -864 -768 -880
WIRE -688 -864 -688 -928
WIRE -976 -848 -976 -912
WIRE -976 -848 -1072 -848
WIRE -416 -848 -416 -912
WIRE -416 -848 -496 -848
WIRE -1072 -656 -1072 -800
WIRE -496 -656 -496 -800
WIRE -496 -656 -1072 -656
WIRE -432 -656 -496 -656
WIRE -1072 -512 -1072 -656
WIRE -496 -512 -496 -656
WIRE -688 -496 -688 -512
WIRE -992 -464 -1072 -464
WIRE -416 -464 -496 -464
WIRE -608 -448 -608 -512
WIRE -608 -448 -688 -448
WIRE -736 -416 -784 -416
WIRE -992 -400 -992 -464
WIRE -416 -400 -416 -464
WIRE -784 -368 -784 -416
WIRE -688 -368 -688 -400
WIRE -544 -368 -544 -432
WIRE -544 -368 -688 -368
WIRE -688 -352 -688 -368
WIRE -1072 -336 -1072 -416
WIRE -608 -304 -688 -304
WIRE -992 -288 -1072 -288
WIRE -784 -272 -784 -368
WIRE -736 -272 -784 -272
WIRE -688 -240 -688 -256
WIRE -608 -240 -608 -304
WIRE -992 -224 -992 -288
WIRE -1072 -192 -1072 -240
WIRE -688 -32 -688 -48
WIRE -608 16 -608 -48
WIRE -608 16 -688 16
WIRE -496 16 -496 -416
WIRE -736 48 -784 48
WIRE -416 64 -496 64
WIRE -784 96 -784 48
WIRE -688 96 -688 64
WIRE -544 96 -688 96
WIRE -688 112 -688 96
WIRE -416 128 -416 64
WIRE -608 160 -688 160
WIRE -496 160 -496 112
WIRE -784 192 -784 96
WIRE -736 192 -784 192
WIRE -688 224 -688 208
WIRE -608 224 -608 160
FLAG -496 -1088 vdd
FLAG -1072 -1088 vdd
FLAG -496 160 vss
FLAG -1072 -192 vss
FLAG -1344 -1136 vdd
FLAG -1344 -864 vss
FLAG -1440 -992 in1
FLAG -1120 -816 in2
FLAG -768 -1136 vdd
FLAG -768 -864 vss
FLAG -544 -816 in1
FLAG -864 -992 in2
FLAG -1120 -432 in1
FLAG -1120 -256 in2
FLAG -688 -512 vdd
FLAG -688 -240 vss
FLAG -784 -368 in2
FLAG -688 -48 vdd
FLAG -688 224 vss
FLAG -784 96 in1
FLAG -432 -656 Q
FLAG -416 128 vss
FLAG -608 224 vss
FLAG -608 -48 vdd
FLAG -608 -240 vss
FLAG -608 -512 vdd
FLAG -416 -400 vss
FLAG -992 -224 vss
FLAG -992 -400 vss
FLAG -416 -1088 vdd
FLAG -416 -912 vdd
FLAG -688 -1136 vdd
FLAG -688 -864 vss
FLAG -976 -1088 vdd
FLAG -976 -912 vdd
FLAG -1264 -864 vss
FLAG -1264 -1136 vdd
SYMBOL nmos018 -1120 -512 R0
SYMATTR InstName M9
SYMATTR Value2 l={ll} w={wn*2} ad={450n*{wn}} as={450n*{wn}} pd={900n+{wn}} ps={1080n+{wn}}
SYMBOL pmos018 -1120 -1072 R0
SYMATTR InstName M10
SYMATTR Value2 l={ll} w={wp*2} ad={450n*{wp}} as={450n*{wp}} pd={900n+{wp}} ps={1080n+{wp}}
SYMBOL pmos018 -544 -1072 R0
SYMATTR InstName M5
SYMATTR Value2 l={ll} w={wp*2} ad={450n*{wp}} as={450n*{wp}} pd={900n+{wp}} ps={1080n+{wp}}
SYMBOL pmos018 -1120 -896 R0
SYMATTR InstName M6
SYMATTR Value2 l={ll} w={wp*2} ad={450n*{wp}} as={450n*{wp}} pd={900n+{wp}} ps={1080n+{wp}}
SYMBOL pmos018 -544 -896 R0
SYMATTR InstName M7
SYMATTR Value2 l={ll} w={wp*2} ad={450n*{wp}} as={450n*{wp}} pd={900n+{wp}} ps={1080n+{wp}}
SYMBOL nmos018 -544 -512 R0
SYMATTR InstName M1
SYMATTR Value2 l={ll} w={wn*2} ad={450n*{wn}} as={450n*{wn}} pd={900n+{wn}} ps={1080n+{wn}}
SYMBOL nmos018 -1120 -336 R0
SYMATTR InstName M2
SYMATTR Value2 l={ll} w={wn*2} ad={450n*{wn}} as={450n*{wn}} pd={900n+{wn}} ps={1080n+{wn}}
SYMBOL nmos018 -544 16 R0
SYMATTR InstName M3
SYMATTR Value2 l={ll} w={wn*2} ad={450n*{wn}} as={450n*{wn}} pd={900n+{wn}} ps={1080n+{wn}}
SYMBOL pmos018 -1392 -1120 R0
SYMATTR InstName M4
SYMATTR Value2 l={ll} w={wp*1} ad={450n*{wp}} as={450n*{wp}} pd={900n+{wp}} ps={1080n+{wp}}
SYMBOL nmos018 -1392 -976 R0
SYMATTR InstName M8
SYMATTR Value2 l={ll} w={wn*1} ad={450n*{wn}} as={450n*{wn}} pd={900n+{wn}} ps={1080n+{wn}}
SYMBOL pmos018 -816 -1120 R0
SYMATTR InstName M11
SYMATTR Value2 l={ll} w={wp*1} ad={450n*{wp}} as={450n*{wp}} pd={900n+{wp}} ps={1080n+{wp}}
SYMBOL nmos018 -816 -976 R0
SYMATTR InstName M12
SYMATTR Value2 l={ll} w={wn*1} ad={450n*{wn}} as={450n*{wn}} pd={900n+{wn}} ps={1080n+{wn}}
SYMBOL pmos018 -736 -496 R0
SYMATTR InstName M13
SYMATTR Value2 l={ll} w={wp} ad={450n*{wp}} as={450n*{wp}} pd={900n+{wp}} ps={1080n+{wp}}
SYMBOL nmos018 -736 -352 R0
SYMATTR InstName M14
SYMATTR Value2 l={ll} w={wn} ad={450n*{wn}} as={450n*{wn}} pd={900n+{wn}} ps={1080n+{wn}}
SYMBOL pmos018 -736 -32 R0
SYMATTR InstName M15
SYMATTR Value2 l={ll} w={wp*1} ad={450n*{wp}} as={450n*{wp}} pd={900n+{wp}} ps={1080n+{wp}}
SYMBOL nmos018 -736 112 R0
SYMATTR InstName M16
SYMATTR Value2 l={ll} w={wn*1} ad={450n*{wn}} as={450n*{wn}} pd={900n+{wn}} ps={1080n+{wn}}
TEXT -136 -800 Left 2 !.lib BU_180nm.lib
TEXT -136 -944 Left 2 ;Parametres requis: \nll=longueur \nwn=largeur_nmos \nwp=largeur_pmos
TEXT -384 -832 Left 2 ;wp1
TEXT -144 -768 Left 2 !.param wn1={wn*3}
TEXT -672 -896 Left 2 ;wn1
TEXT -384 -1024 Left 2 ;wp1
TEXT -664 -1072 Left 2 ;wp1
TEXT -144 -736 Left 2 !.param wp2={wp*3}
TEXT -960 -840 Left 2 ;wp2
