Version 4
SHEET 1 1312 680
WIRE 320 224 -64 224
WIRE 416 224 320 224
WIRE -64 272 -64 224
WIRE 416 288 416 224
WIRE 320 304 320 224
WIRE 384 304 320 304
WIRE 496 320 448 320
WIRE 592 320 496 320
WIRE 384 336 240 336
WIRE 240 400 240 336
WIRE 416 400 416 352
WIRE 592 400 592 384
WIRE 592 400 416 400
WIRE 416 416 416 400
WIRE 80 432 80 304
FLAG -64 352 0
FLAG 240 480 0
FLAG 416 416 0
FLAG -64 224 vdd
FLAG 416 400 vss
FLAG 240 336 b
FLAG 496 320 out
FLAG 80 512 0
SYMBOL /voltage -64 256 R0
SYMATTR InstName V1
SYMATTR Value {vv}
SYMBOL /voltage 240 384 R0
SYMATTR InstName V2
SYMATTR Value PULSE({vv} 0 1000p 1p 1p 2000p 4000p 5)
SYMBOL /voltage 80 416 R0
SYMATTR InstName V3
SYMATTR Value PULSE(0 0 2000p 1p 1p 2000p 4000p 5)
SYMBOL cap 576 320 R0
SYMATTR InstName C1
SYMATTR Value 1f
SYMBOL xor 416 320 R0
SYMATTR InstName X2
SYMATTR SpiceLine ll=180n wn={nnw} wp={nnw*mp}
TEXT -88 72 Left 2 !.param vv=1.8 nnw=2*180n mp=2.5\n.lib BU_180nm.lib
TEXT 728 72 Left 2 !.meas tran t1 find time when v(out)=vv*0.1 rise 1\n.meas tran t2 find time when v(out)=vv*0.9 rise 1\n.meas tran t3 find time when v(out)=vv*0.1 fall 1\n.meas tran t4 find time when v(out)=vv*0.9 fall 1\n.meas tran transition_up param abs(t2-t1)\n.meas tran transition_down param abs(t4-t3)\n.meas tran ratio param upslope/downslope
TEXT 736 296 Left 2 !.meas dc vi_mid param (vil+vih)/2
TEXT 736 320 Left 2 !.meas dc vil when d(v(out))=-1 fall 1
TEXT 736 344 Left 2 !.meas dc vih when d(v(out))=-1 rise 1
TEXT -88 152 Left 2 !.dc V2 0 {vv} 0.01
